LAMMPS (30 Sep 2013)
#mui DPD solver

variable  lratio    equal  1.0
variable  vratio    equal  1.0
variable  tratio    equal  1.0
variable  fratio    equal  1.0
variable  xlo       equal  0.0
variable  xhi       equal  50.0
variable  ylo       equal  0.0
variable  yhi       equal  50.0
variable  zlo       equal  0.0
variable  zhi       equal  85.0

variable prhi       equal 78.0
variable prlo       equal 73.0
variable frhi       equal 85.0
variable frlo       equal 84.0
variable adhi       equal 1.0
variable adlo       equal 0.0
variable step       equal 0.01
variable cutr       equal 1.0
variable den        equal 0.5
variable npar       equal round((50-0)*(50-0)*(85-0)*0.5)

#*************settings**************
dimension   3
units       lj
boundary    p p f

atom_style  dpd/atomic/meso

#*************simulation region*******
region          dpd  block 0 50 0 50 0 85 units box
create_box      2 dpd
Created orthogonal box = (0 0 0) to (50 50 85)
create_atoms    1 random 106250 32413 dpd
Created 106250 atoms
neighbor        0.3 bin
neigh_modify    delay 0 every 1 check yes

region          todel block INF INF INF INF INF 0
group           todel region todel
0 atoms in group todel
delete_atoms    group todel
Deleted 0 atoms, new total = 106250

region          wall block INF INF INF INF 0 1

group           wall region wall
1264 atoms in group wall
group           flow subtract all wall
104986 atoms in group flow

#**************compute**********************
mass        * 1.0
compute     mobile flow temp/meso
velocity    flow create 1.0 45216

pair_style  dpd/meso 1.0 64739
pair_coeff  * * 25.0 12 1.4 1.0

fix         1 all nve/meso

velocity    wall set 0.0 0.0 0.0 units box

variable    gx    equal  0.00000025*180/1
fix         pressure flow addforce/meso gx 0.0 0.0

fix         fix_bound all solid_bound/meso z rho5rc1s1
fix         fix_wall flow wall/meso d 1.0 f 0.0 z
fix         fix_f wall setforce/meso 0.0 0.0 0.0

#**********************communication****************
region      pregion block INF INF INF INF 73 78
region      fregion block INF INF INF INF 84 85

fix         fix_mui all mui/meso mpi://domain1/interface pregion fregion 1

#*********************dump***************************************************
run_style   mvv/meso
timestep    0.010000000000000000208
thermo      10
run         1000

#*********************dump***************************************************
timestep    0.01
thermo      10
run         1000
  update every 1 steps, delay 0 steps, check yes
Step Temp E_pair E_mol TotEng Press
0   0.96003072    4.9269102            0    6.3669102    2.9017069
Loop time of 8.86239 on 1 procs (1 MPI x 1 OpenMP) for 1000 steps with 106250 atoms

Pair  time (%) = 0.00288201 (0.0325196)
Neigh time (%) = 0.0335635 (0.378719)
Comm  time (%) = 0.261428 (2.94986)
Outpt time (%) = 0.0272274 (0.307224)
Other time (%) = 8.53728 (96.3317)

Hi.1191917
Loop time of 8.85489 on 1 procs for 1000 steps with 31250 atoms
